/*--------------------------------*- C++ -*----------------------------------*\
| =========                 |                                                 |
| \\      /  F ield         | OpenFOAM: The Open Source CFD Toolbox           |
|  \\    /   O peration     | Version:  2512                                  |
|   \\  /    A nd           | Website:  www.openfoam.com                      |
|    \\/     M anipulation  |                                                 |
\*---------------------------------------------------------------------------*/
FoamFile
{
    version     2.0;
    format      binary;
    arch        "LSB;label=32;scalar=64";
    class       polyBoundaryMesh;
    location    "constant/polyMesh";
    object      boundary;
}
// * * * * * * * * * * * * * * * * * * * * * * * * * * * * * * * * * * * * * //

7
(
    back
    {
        type            empty;
        inGroups        1(empty);
        nFaces          35826;
        startFace       71416;
    }
    front
    {
        type            empty;
        inGroups        1(empty);
        nFaces          35826;
        startFace       107242;
    }
    inlet
    {
        type            patch;
        nFaces          120;
        startFace       143068;
    }
    outlet
    {
        type            patch;
        nFaces          120;
        startFace       143188;
    }
    lowerWall
    {
        type            patch;
        nFaces          200;
        startFace       143308;
    }
    upperWall
    {
        type            patch;
        nFaces          200;
        startFace       143508;
    }
    airfoil
    {
        type            wall;
        inGroups        1(wall);
        nFaces          149;
        startFace       143708;
    }
)

// ************************************************************************* //
